/*--------------------------------*- C++ -*----------------------------------*\
| =========                 |                                                 |
| \\      /  F ield         | OpenFOAM: The Open Source CFD Toolbox           |
|  \\    /   O peration     | Version:  2.1.0                                 |
|   \\  /    A nd           | Web:      www.OpenFOAM.org                      |
|    \\/     M anipulation  |                                                 |
\*---------------------------------------------------------------------------*/
FoamFile
{
    version     2.0;
    format      ascii;
    class       dictionary;
    location    "system";
    object      controlDict;
}
// * * * * * * * * * * * * * * * * * * * * * * * * * * * * * * * * * * * * * //

application     interFoam;

startFrom       latestTime;

startTime       0; 

stopAt          endTime;

endTime         40; 

deltaT          0.0001; 

writeControl    adjustableRunTime;

writeInterval   2; 

purgeWrite      0;

writeFormat     binary; 

writePrecision  12;

writeCompression uncompressed; 

timeFormat      general;

timePrecision   12;

runTimeModifiable yes;

adjustTimeStep  yes;

maxCo           1; 
maxAlphaCo      1; 

maxDeltaT       1;

functions
{



amontBasFlux
    {
     	type            faceSource;
        functionObjectLibs ("libfieldFunctionObjects.so");
        enabled         true;
        outputControl   timeStep;
        surfaceFormat   off;
        sourceName Flow;
        log             true;
        valueOutput     true;
        source          sampledSurface;
        sampledSurfaceDict               
        {
            type            plane;
            patchName   aval;
            basePoint       (0.1 0.8 0.5);
            normalVector    (1 0 0);
            interpolate       false;
        }
	operation	areaNormalIntegrate;
        fields
	(
            U
	);
    }

avalBasFlux
    {
     	type            faceSource;
        functionObjectLibs ("libfieldFunctionObjects.so");
        enabled         true;
        outputControl   timeStep;
        surfaceFormat   off;
        sourceName Flow;
        log             true;
        valueOutput     true;
        source          sampledSurface;
        sampledSurfaceDict               
        {
            type            plane;
            patchName   aval;
            basePoint       (5.5 0.8 0.5);
            normalVector    (1 0 0);
            interpolate       false;
        }
	operation	areaNormalIntegrate;
        fields
	(
            U
	);
    }



   probes
    {
     type probes
     functionObjectLibs ("libsampling.dylib");
     
     fields
      (
        p_rgh
      );

     probeLocations
      (
       (0.5 0.85 0.3)//1
       (1.58 0.85 1.11)//2
       (2.44 0.85 0.97)//3
       (2.61 0.85 0.91)//4
       (3.49 0.85 0.81)//5
       (3.67 0.85 0.78)//6
       (4.55 0.85 0.65)//7
       (4.72 0.85 0.59)//8
       (5.7 0.85 0.1)//9

     );
     }





}

// ************************************************************************* //
